@<TRIPOS>MOLECULE
neutra.log
   20    20     1     0     0
SMALL
AMBER ff03.r1


@<TRIPOS>ATOM
      1 C           0.5300    1.3788   -0.1268 C.3       1 LIG1       -0.1054
      2 C          -0.4820    0.3203    0.2888 C.3       1 LIG1        0.0961
      3 C           1.1546   -1.4035    0.1722 C.3       1 LIG1        0.1324
      4 C           2.2409   -0.4251   -0.2394 C.3       1 LIG1       -0.1134
      5 C           1.9301    0.9648    0.2763 C.3       1 LIG1       -0.0774
      6 H          -0.5299    0.2468    1.4117 H         1 LIG1        0.0507
      7 H           0.4848    1.5184   -1.2384 H         1 LIG1        0.0522
      8 H           0.2622    2.3535    0.3550 H         1 LIG1        0.0522
      9 H           1.1628   -1.5537    1.2850 H         1 LIG1        0.0477
     10 H           1.2793   -2.3916   -0.3457 H         1 LIG1        0.0477
     11 H           3.2253   -0.7752    0.1630 H         1 LIG1        0.0517
     12 H           2.3142   -0.4015   -1.3578 H         1 LIG1        0.0517
     13 H           2.0189    0.9794    1.3944 H         1 LIG1        0.0442
     14 H           2.6738    1.6972   -0.1307 H         1 LIG1        0.0442
     15 O          -0.1376   -0.9677   -0.2352 O.3       1 LIG1       -0.4306
     16 C          -1.8719    0.6295   -0.2744 C.3       1 LIG1        0.1374
     17 H          -2.2056    1.6430    0.0719 H         1 LIG1        0.0517
     18 H          -1.8473    0.5929   -1.3958 H         1 LIG1        0.0517
     19 O          -2.8396   -0.2697    0.2224 O.3       1 LIG1       -0.5988
     20 H          -2.5378   -1.1600   -0.0010 H         1 LIG1        0.4140
@<TRIPOS>BOND
     1    1    8 1
     2    7    1 1
     3    1    2 1
     4   16    2 1
     5   16   19 1
     6   20   19 1
     7   18   16 1
     8   16   17 1
     9   15    2 1
    10   15    3 1
    11    3    9 1
    12   10    3 1
    13    4    3 1
    14   12    4 1
    15    4   11 1
    16    4    5 1
    17   14    5 1
    18    5   13 1
    19    1    5 1
    20    2    6 1
@<TRIPOS>SUBSTRUCTURE
     1 LIG1        1 TEMP              0 ****  ****    0 ROOT
