@<TRIPOS>MOLECULE
02_alinhada
   46    47     1     0     0
SMALL
bcc


@<TRIPOS>ATOM
      1 H           1.0220    0.8350   -0.9810 H         1 UNL         0.1620
      2 O          -2.2040   -0.5350    1.0430 O.2       1 UNL        -0.5881
      3 O1         -0.4820    2.5370   -2.4410 O.2       1 UNL        -0.5970
      4 O2         -1.6930    4.2150   -3.2760 O.3       1 UNL        -0.6001
      5 N          -1.5870    0.9980   -0.5540 N.am      1 UNL        -0.4691
      6 C          -0.0030   -0.7030    0.1660 C.ar      1 UNL        -0.1686
      7 C1          1.0910   -0.1270   -0.4860 C.ar      1 UNL        -0.0460
      8 C2          2.3200   -0.7780   -0.5030 C.ar      1 UNL        -0.1410
      9 C3          2.4810   -2.0080    0.1310 C.ar      1 UNL         0.0991
     10 C4          1.3910   -2.5930    0.7920 C.ar      1 UNL        -0.3105
     11 C5          0.1690   -1.9360    0.8010 C.ar      1 UNL         0.0060
     12 C6         -1.3710   -0.0830    0.2720 C.2       1 UNL         0.6857
     13 C7         -2.7170    1.8130   -0.6590 C.ar      1 UNL         0.1386
     14 C8         -2.7070    2.8910   -1.5920 C.ar      1 UNL        -0.1976
     15 C9         -3.8370    3.7170   -1.7020 C.ar      1 UNL        -0.0440
     16 C10        -4.9610    3.5080   -0.9210 C.ar      1 UNL        -0.1750
     17 C11        -4.9620    2.4520   -0.0080 C.ar      1 UNL        -0.0650
     18 C12        -3.8650    1.6130    0.1260 C.ar      1 UNL        -0.1740
     19 C13        -1.5320    3.1640   -2.4420 C.2       1 UNL         0.6667
     20 H1         -0.8480    1.2610   -1.2000 H         1 UNL         0.3495
     21 H2         -0.8690    4.2990   -3.7790 H         1 UNL         0.4510
     22 H3          3.1640   -0.3280   -1.0090 H         1 UNL         0.1610
     23 Br          4.2050   -2.8150    0.0450 Br        1 UNL        -0.0391
     24 S           1.5550   -4.1930    1.6600 S.o2      1 UNL         1.4842
     25 H4         -0.6760   -2.3790    1.3080 H         1 UNL         0.1720
     26 H5         -3.8140    4.5300   -2.4150 H         1 UNL         0.1580
     27 H6         -5.8230    4.1560   -1.0190 H         1 UNL         0.1440
     28 H7         -5.8340    2.2750    0.6120 H         1 UNL         0.1420
     29 H8         -3.8750    0.7980    0.8310 H         1 UNL         0.1770
     30 O3          1.8140   -5.2080    0.6420 O.2       1 UNL        -0.6343
     31 O4          2.4970   -3.9670    2.7550 O.2       1 UNL        -0.6343
     32 N1          0.0380   -4.4900    2.2980 N.3       1 UNL        -0.8155
     33 C14        -0.2090   -4.1350    3.7140 C.3       1 UNL         0.2143
     34 C15        -1.5950   -3.5360    3.9430 C.3       1 UNL        -0.1206
     35 C16        -0.7580   -5.5990    1.7180 C.3       1 UNL         0.2143
     36 C17        -1.7250   -5.1600    0.6220 C.3       1 UNL        -0.1206
     37 H9         -0.0740   -5.0300    4.3340 H         1 UNL         0.0604
     38 H10         0.5610   -3.4290    4.0200 H         1 UNL         0.0604
     39 H11        -1.7150   -3.3040    5.0050 H         1 UNL         0.0455
     40 H12        -1.7370   -2.6130    3.3770 H         1 UNL         0.0455
     41 H13        -2.3920   -4.2310    3.6680 H         1 UNL         0.0455
     42 H14        -0.0820   -6.3650    1.3360 H         1 UNL         0.0604
     43 H15        -1.3060   -6.0430    2.5540 H         1 UNL         0.0604
     44 H16        -2.3110   -6.0180    0.2790 H         1 UNL         0.0455
     45 H17        -2.4180   -4.3940    0.9780 H         1 UNL         0.0455
     46 H18        -1.1850   -4.7620   -0.2400 H         1 UNL         0.0455
@<TRIPOS>BOND
     1   39   34 1
     2   38   33 1
     3   34   40 1
     4   34   33 1
     5   34   41 1
     6   37   33 1
     7   31   24 2
     8   33   32 1
     9   28   17 1
    10   29   18 1
    11    2   12 2
    12    1    7 1
    13   17   18 ar
    14   17   16 ar
    15   18   13 ar
    16   22    8 1
    17    7    8 ar
    18    7    6 ar
    19    8    9 ar
    20   12    6 1
    21   12    5 am
    22    6   11 ar
    23   27   16 1
    24   16   15 ar
    25    9   23 1
    26    9   10 ar
    27   13    5 1
    28   13   14 ar
    29   11   10 ar
    30   11   25 1
    31   10   24 1
    32    5   20 1
    33   24   32 1
    34   24   30 2
    35   15   14 ar
    36   15   26 1
    37   32   35 1
    38   14   19 1
    39   19    3 2
    40   19    4 1
    41    4   21 1
    42   43   35 1
    43   35   42 1
    44   35   36 1
    45   45   36 1
    46   36   46 1
    47   36   44 1
@<TRIPOS>SUBSTRUCTURE
     1 UNL         1 TEMP              0 ****  ****    0 ROOT
