@<TRIPOS>MOLECULE
01_alinhada
   46    47     1     0     0
SMALL
bcc


@<TRIPOS>ATOM
      1 H           1.0120    0.8340   -0.9760 H         1 UNL         0.1560
      2 O          -2.1320   -0.3820    1.1880 O.2       1 UNL        -0.5841
      3 O1         -0.6080    2.2370   -2.7360 O.2       1 UNL        -0.5960
      4 O2         -1.8640    3.8110   -3.6960 O.3       1 UNL        -0.6011
      5 N          -1.6070    0.9370   -0.6210 N.am      1 UNL        -0.4701
      6 C           0.0070   -0.6890    0.1980 C.ar      1 UNL        -0.1776
      7 C1          1.0950   -0.1270   -0.4830 C.ar      1 UNL        -0.0400
      8 C2          2.3160   -0.7950   -0.5300 C.ar      1 UNL        -0.1630
      9 C3          2.4730   -2.0250    0.1060 C.ar      1 UNL         0.0010
     10 C4          1.3910   -2.5710    0.7920 C.ar      1 UNL        -0.3735
     11 C5          0.1650   -1.9200    0.8400 C.ar      1 UNL         0.0330
     12 C6         -1.3470   -0.0390    0.3180 C.2       1 UNL         0.6867
     13 C7         -2.7410    1.7400   -0.7620 C.ar      1 UNL         0.1426
     14 C8         -2.7840    2.6990   -1.8170 C.ar      1 UNL        -0.2006
     15 C9         -3.9210    3.5090   -1.9670 C.ar      1 UNL        -0.0440
     16 C10        -5.0030    3.3970   -1.1090 C.ar      1 UNL        -0.1770
     17 C11        -4.9520    2.4580   -0.0770 C.ar      1 UNL        -0.0640
     18 C12        -3.8460    1.6390    0.1000 C.ar      1 UNL        -0.1760
     19 C13        -1.6570    2.8640   -2.7550 C.2       1 UNL         0.6667
     20 H1         -0.9070    1.1030   -1.3400 H         1 UNL         0.3505
     21 H2         -1.0700    3.8280   -4.2520 H         1 UNL         0.4500
     22 H3          3.1500   -0.3560   -1.0650 H         1 UNL         0.1490
     23 H4          3.4100   -2.5670    0.0610 H         1 UNL         0.1630
     24 S           1.5840   -4.1650    1.6300 S.o2      1 UNL         1.5112
     25 H5         -0.6840   -2.3550    1.3540 H         1 UNL         0.1670
     26 H6         -3.9380    4.2310   -2.7720 H         1 UNL         0.1570
     27 H7         -5.8720    4.0300   -1.2400 H         1 UNL         0.1430
     28 H8         -5.7900    2.3570    0.6030 H         1 UNL         0.1420
     29 H9         -3.8180    0.9120    0.8950 H         1 UNL         0.1780
     30 O3          0.3290   -4.8870    1.4320 O.2       1 UNL        -0.6498
     31 O4          2.8630   -4.7080    1.1730 O.2       1 UNL        -0.6498
     32 N1          1.7340   -3.8410    3.2590 N.3       1 UNL        -0.8085
     33 C14         0.5570   -3.9200    4.1430 C.3       1 UNL         0.2143
     34 C15         0.2260   -2.6120    4.8630 C.3       1 UNL        -0.1206
     35 C16         3.0760   -3.7420    3.8620 C.3       1 UNL         0.2143
     36 C17         3.6850   -2.3370    3.8590 C.3       1 UNL        -0.1206
     37 H10        -0.2890   -4.2470    3.5400 H         1 UNL         0.0607
     38 H11         0.7410   -4.7160    4.8750 H         1 UNL         0.0607
     39 H12        -0.6640   -2.7530    5.4840 H         1 UNL         0.0440
     40 H13         1.0390   -2.2900    5.5180 H         1 UNL         0.0440
     41 H14         0.0180   -1.8080    4.1520 H         1 UNL         0.0440
     42 H15         2.9700   -4.1040    4.8890 H         1 UNL         0.0607
     43 H16         3.7390   -4.4370    3.3480 H         1 UNL         0.0607
     44 H17         4.6480   -2.3530    4.3780 H         1 UNL         0.0440
     45 H18         3.8610   -1.9850    2.8410 H         1 UNL         0.0440
     46 H19         3.0380   -1.6150    4.3600 H         1 UNL         0.0440
@<TRIPOS>BOND
     1   30   24 2
     2   31   24 2
     3   24   10 1
     4   24   32 1
     5   25   11 1
     6   37   33 1
     7   11   10 ar
     8   11    6 ar
     9   10    9 ar
    10    2   12 2
    11   29   18 1
    12   28   17 1
    13   18   17 ar
    14   18   13 ar
    15   12    6 1
    16   12    5 am
    17   17   16 ar
    18    6    7 ar
    19   38   33 1
    20    5   13 1
    21    5   20 1
    22   13   14 ar
    23   16   27 1
    24   16   15 ar
    25   23    9 1
    26    9    8 ar
    27   33   32 1
    28   33   34 1
    29   14   15 ar
    30   14   19 1
    31   15   26 1
    32   32   35 1
    33   19    3 2
    34   19    4 1
    35    4   21 1
    36    7    8 ar
    37    7    1 1
    38    8   22 1
    39   43   35 1
    40   39   34 1
    41   35   42 1
    42   35   36 1
    43   34   41 1
    44   34   40 1
    45   45   36 1
    46   36   46 1
    47   36   44 1
@<TRIPOS>SUBSTRUCTURE
     1 UNL         1 TEMP              0 ****  ****    0 ROOT
