@<TRIPOS>MOLECULE
20_alinhada
   47    48     1     0     0
SMALL
bcc


@<TRIPOS>ATOM
      1 H           1.0140    0.8390   -0.9670 H         1 UNL         0.1590
      2 O          -2.3950   -0.9380    0.1570 O.2       1 UNL        -0.5791
      3 O1         -0.0540    3.3280   -0.4810 O.2       1 UNL        -0.6060
      4 O2         -1.0490    5.2850   -0.1560 O.3       1 UNL        -0.5681
      5 N          -1.5030    1.1520   -0.2210 N.am      1 UNL        -0.4681
      6 C          -0.0280   -0.7610    0.0620 C.ar      1 UNL        -0.1786
      7 C1          1.0980   -0.1220   -0.4730 C.ar      1 UNL        -0.0400
      8 C2          2.3520   -0.7200   -0.3890 C.ar      1 UNL        -0.1630
      9 C3          2.5040   -1.9620    0.2220 C.ar      1 UNL         0.0010
     10 C4          1.3780   -2.5980    0.7420 C.ar      1 UNL        -0.3745
     11 C5          0.1210   -2.0100    0.6720 C.ar      1 UNL         0.0330
     12 C6         -1.4290   -0.2070    0.0040 C.2       1 UNL         0.6877
     13 C7         -2.6320    1.9580   -0.3760 C.ar      1 UNL         0.1726
     14 C8         -2.4540    3.3790   -0.4890 C.ar      1 UNL        -0.2316
     15 C9         -3.6080    4.1770   -0.6940 C.ar      1 UNL         0.2121
     16 C10        -4.8760    3.6020   -0.7450 C.ar      1 UNL        -0.2660
     17 C11        -5.0190    2.2300   -0.5990 C.ar      1 UNL        -0.0270
     18 C12        -3.9180    1.4050   -0.4180 C.ar      1 UNL        -0.2150
     19 C13        -1.0990    3.9640   -0.3900 C.2       1 UNL         0.6747
     20 H1         -0.6310    1.6720   -0.2720 H         1 UNL         0.3495
     21 H2         -0.1080    5.5120   -0.1140 H         1 UNL         0.4430
     22 H3          3.2180   -0.2140   -0.8000 H         1 UNL         0.1490
     23 H4          3.4750   -2.4300    0.3140 H         1 UNL         0.1640
     24 S           1.5580   -4.2150    1.5360 S.o2      1 UNL         1.5052
     25 H5         -0.7500   -2.4930    1.0960 H         1 UNL         0.1650
     26 O3         -3.4700    5.5170   -0.8680 O.3       1 UNL        -0.4671
     27 H6         -5.7430    4.2350   -0.9030 H         1 UNL         0.1430
     28 H7         -6.0090    1.7900   -0.6340 H         1 UNL         0.1430
     29 H8         -4.0340    0.3400   -0.3060 H         1 UNL         0.1810
     30 O4          2.9960   -4.4290    1.6970 O.2       1 UNL        -0.6503
     31 O5          0.6490   -4.2130    2.6800 O.2       1 UNL        -0.6503
     32 N1          1.0070   -5.3570    0.4520 N.3       1 UNL        -0.8095
     33 C14        -0.3830   -5.8410    0.5240 C.3       1 UNL         0.2148
     34 C15        -1.2070   -5.5690   -0.7350 C.3       1 UNL        -0.1201
     35 C16         1.9660   -6.0540   -0.4250 C.3       1 UNL         0.2148
     36 C17         2.2520   -5.3570   -1.7570 C.3       1 UNL        -0.1201
     37 H9         -4.3420    5.9040   -1.0050 H         1 UNL         0.4240
     38 H10        -0.3500   -6.9180    0.7280 H         1 UNL         0.0604
     39 H11        -0.8490   -5.3780    1.3930 H         1 UNL         0.0604
     40 H12        -2.2250   -5.9410   -0.5920 H         1 UNL         0.0440
     41 H13        -1.2640   -4.5000   -0.9500 H         1 UNL         0.0440
     42 H14        -0.7910   -6.0750   -1.6100 H         1 UNL         0.0440
     43 H15         2.8960   -6.1990    0.1260 H         1 UNL         0.0604
     44 H16         1.5420   -7.0460   -0.6020 H         1 UNL         0.0604
     45 H17         1.3390   -5.1970   -2.3350 H         1 UNL         0.0440
     46 H18         2.7300   -4.3880   -1.6010 H         1 UNL         0.0440
     47 H19         2.9320   -5.9710   -2.3550 H         1 UNL         0.0440
@<TRIPOS>BOND
     1   31   24 2
     2   39   33 1
     3   24   30 2
     4   24   10 1
     5   24   32 1
     6   25   11 1
     7   11   10 ar
     8   11    6 ar
     9   10    9 ar
    10    2   12 2
    11   38   33 1
    12    4   21 1
    13    4   19 1
    14   33   32 1
    15   33   34 1
    16   29   18 1
    17   12    6 1
    18   12    5 am
    19   28   17 1
    20   18   17 ar
    21   18   13 ar
    22   17   16 ar
    23   13    5 1
    24   13   14 ar
    25    6    7 ar
    26    5   20 1
    27   16   27 1
    28   16   15 ar
    29   32   35 1
    30   14   19 1
    31   14   15 ar
    32   19    3 2
    33   15   26 1
    34   26   37 1
    35    9   23 1
    36    9    8 ar
    37   43   35 1
    38    7    8 ar
    39    7    1 1
    40    8   22 1
    41   40   34 1
    42   34   41 1
    43   34   42 1
    44   35   44 1
    45   35   36 1
    46   46   36 1
    47   36   45 1
    48   36   47 1
@<TRIPOS>SUBSTRUCTURE
     1 UNL         1 TEMP              0 ****  ****    0 ROOT
